Circuit: * C:\Users\nagyizee\Google Drive\Projects\My_Projects\FlightLogger\Electronics\simulations\pwrfault.asc

.OP point found by inspection.

Date: Wed Jan 08 19:15:03 2020
Total elapsed time: 0.099 seconds.

tnom = 27
temp = 27
method = modified trap
totiter = 3279
traniter = 3279
tranpoints = 1558
accept = 1445
rejected = 113
matrix size = 13
fillins = 0
solver = Normal
Matrix Compiler1: 816 bytes object code size  0.2/0.1/[0.1]
Matrix Compiler2: 1.00 KB object code size  0.1/0.1/[0.1]


