Circuit: * C:\Users\nagyizee\Google Drive\Projects\My_Projects\FlightLogger\Electronics\simulations\vccfilter.asc

WARNING: Less than two connections to node N002.  This node is used by R2.
Direct Newton iteration for .op point succeeded.

Date: Sun Dec 29 18:06:35 2019
Total elapsed time: 0.281 seconds.

tnom = 27
temp = 27
method = modified trap
totiter = 26033
traniter = 26030
tranpoints = 13016
accept = 8558
rejected = 4458
matrix size = 6
fillins = 0
solver = Normal
Matrix Compiler1: 92 bytes object code size  0.0/0.2/[0.0]
Matrix Compiler2:      31 opcodes  0.1/[0.1]/0.1


