Circuit: * C:\Projects\My_Projects\FlightLogger\Electronics\design\supply_exp.asc

Direct Newton iteration for .op point succeeded.

Date: Sun Sep 08 21:11:11 2019
Total elapsed time: 0.748 seconds.

tnom = 27
temp = 27
method = modified trap
totiter = 120550
traniter = 120547
tranpoints = 60229
accept = 60185
rejected = 44
matrix size = 5
fillins = 0
solver = Normal
Matrix Compiler1: 132 bytes object code size  0.1/0.1/[0.0]
Matrix Compiler2: off  [0.0]/0.1/0.1


